30
Molecule auto-generated by script.
H    14.018081477657388   8.92522330074464   11.42488354286938
O    14.232393749023112   8.598638629489152   12.291832599126185
H    13.415008793086464   8.413242971857477   12.740999029358363
H    14.260747191932287   9.382048853793416   18.078656132555476
O    14.603921556783796   9.904275603275426   18.795383794039093
H    14.240220365197203   10.77923913521074   18.71538092453101
H    18.944633855629345   19.56005177796041   9.213549114239662
O    18.441253291226563   18.97108596016943   9.764834191270495
H    19.050895848458026   18.367645840904295   10.175243953558521
H    18.185117668023615   19.617078892196457   17.17003487200526
O    18.89847947483833   19.18098594303447   16.717126674275516
H    19.00458829738101   18.31999655367535   17.106585770070403
H    12.423013657848799   4.177493826784608   13.173151712295033
O    12.267336517945317   3.4799703195859855   13.800378583784417
H    12.192923192349545   3.876819362557007   14.661316265718781
H    7.896035861591794   20.920143876343207   11.193705662334686
O    7.379729246876308   20.401728346183457   11.801044761184563
H    7.770169985781903   19.53584765061086   11.84628687149484
H    10.464825747453123   19.060020414060364   5.698603042480338
O    10.658099921674982   18.96450660713907   6.624729475300295
H    10.050217687296627   19.515801153522585   7.105139415208633
H    23.21503271977664   5.737683650509763   4.744065150960274
O    23.13270590984572   6.573870989029078   5.189262853748755
H    23.991668217083575   6.981698231379131   5.199307416931205
H    12.00423475213876   1.7654688345866352   15.633722267271477
O    12.040164551267658   2.695177923287415   15.830033304208476
H    12.937698432321673   2.907078784727948   16.06191938699188
H    22.26892976459492   22.14363680968905   15.819592566870256
O    22.669930444563253   22.913582383799316   15.431558765669248
H    23.54159810800948   23.002677349182136   15.801014811435698
